LTspice 24.0.12 for Windows
Circuit: * C:\Users\Bruno Sampaio\Desktop\Seguidor-Analogico\Simulações\Driver_motor.asc
Start Time: Wed Jun 19 15:49:06 2024
Warning: Multiple definitions of model "2scr375p" Type: BJT
Warning: Multiple definitions of model "bc857b" Type: BJT
Warning: Multiple definitions of model "bc847c" Type: BJT
Warning: Multiple definitions of model "bc847b" Type: BJT
solver = Normal
Maximum thread count: 8
tnom = 27
temp = 27
method = modified trap
Early termination of direct N-R iteration.
Direct Newton iteration failed to find .op point.  (Use ".option noopiter" to skip.)
Starting Gmin stepping
Gmin = 10
Gmin = 1.07374
vernier = 0.5
vernier = 0.25
vernier = 0.125
vernier = 0.0625
Gmin = 1.08884
vernier = 0.03125
vernier = 0.015625
Gmin = 1.03122
vernier = 0.0078125
vernier = 0.0104167
vernier = 0.00520833
Gmin = 1.01724
vernier = 0.00260417
vernier = 0.00347222
Gmin = 1.01042
vernier = 0.00173611
vernier = 0.00231481
vernier = 0.00115741
Gmin = 1.00852
vernier = 0.00154321
vernier = 0.000771604
Gmin = 1.00667
vernier = 0.00102881
vernier = 0.000514403
vernier = 0.00068587
Gmin = 1.00542
vernier = 0.000514403
vernier = 0.00068587
vernier = 0.000514402
Gmin = 1.00461
Gmin = 0
Gmin stepping failed

Starting source stepping with srcstepmethod=0
Source Step = 3.0303%
Source Step = 33.3333%
Source Step = 63.6364%
Source Step = 93.9394%
Source stepping succeeded in finding the operating point.

Heightened Def Con from 0.00148825 to 0.00148826
Heightened Def Con from 0.0015017 to 0.0015017
Heightened Def Con from 0.0125458 to 0.0125458
Heightened Def Con from 0.0145521 to 0.0145521
Heightened Def Con from 0.0165504 to 0.0165504
Heightened Def Con from 0.0406266 to 0.0406266
Heightened Def Con from 0.0466428 to 0.0466429
Heightened Def Con from 0.0566807 to 0.0566807
Heightened Def Con from 0.0667098 to 0.0667098
Heightened Def Con from 0.0727085 to 0.0727085
Heightened Def Con from 0.0847603 to 0.0847603
Heightened Def Con from 0.088751 to 0.088751
Heightened Def Con from 0.103204 to 0.103204
Heightened Def Con from 0.104797 to 0.104797
Heightened Def Con from 0.10919 to 0.10919
Heightened Def Con from 0.118837 to 0.118837
Heightened Def Con from 0.119166 to 0.119166
Heightened Def Con from 0.127148 to 0.127148
Heightened Def Con from 0.129144 to 0.129144
Heightened Def Con from 0.137127 to 0.137127
Heightened Def Con from 0.13888 to 0.13888
Heightened Def Con from 0.139123 to 0.139123
Heightened Def Con from 0.145111 to 0.145111
Heightened Def Con from 0.150906 to 0.150906
Heightened Def Con from 0.157089 to 0.157089
Heightened Def Con from 0.159086 to 0.159086
Heightened Def Con from 0.16093 to 0.16093
Heightened Def Con from 0.161082 to 0.161082
Heightened Def Con from 0.163079 to 0.163079
Heightened Def Con from 0.167073 to 0.167073
Heightened Def Con from 0.170573 to 0.170573
Heightened Def Con from 0.170946 to 0.170946
Heightened Def Con from 0.171067 to 0.171067
Heightened Def Con from 0.173049 to 0.173049
Heightened Def Con from 0.177058 to 0.177058
Heightened Def Con from 0.178957 to 0.178957
Heightened Def Con from 0.179055 to 0.179055
Heightened Def Con from 0.180783 to 0.180783
Heightened Def Con from 0.182945 to 0.182945
Heightened Def Con from 0.18305 to 0.18305
Heightened Def Con from 0.190779 to 0.190779
Heightened Def Con from 0.193038 to 0.193038
Heightened Def Con from 0.194977 to 0.194977
Heightened Def Con from 0.195036 to 0.195036
Heightened Def Con from 0.197034 to 0.197034
Heightened Def Con from 0.203028 to 0.203028
Heightened Def Con from 0.212875 to 0.212875
Heightened Def Con from 0.215018 to 0.215018
Heightened Def Con from 0.217017 to 0.217017
Heightened Def Con from 0.221015 to 0.221015
Heightened Def Con from 0.222725 to 0.222725
Heightened Def Con from 0.223014 to 0.223014
Heightened Def Con from 0.227002 to 0.227002
Heightened Def Con from 0.228917 to 0.228917
Heightened Def Con from 0.228989 to 0.228989
Heightened Def Con from 0.233006 to 0.233006
Heightened Def Con from 0.233006 to 0.233006
Heightened Def Con from 0.236519 to 0.236519
Heightened Def Con from 0.236781 to 0.236781
Heightened Def Con from 0.243 ++++++++to 0.243
Heightened Def Con from 0.243 to 0.243
Heightened Def Con from 0.273002 to 0.273002
Heightened Def Con from 0.278905 to 0.278905
Heightened Def Con from 0.278905 to 0.278905
Heightened Def Con from 0.279015 to 0.279015
Heightened Def Con from 0.281016 to 0.281016
Heightened Def Con from 0.296985 to 0.296985
Heightened Def Con from 0.298826 to 0.298826
Heightened Def Con from 0.303034 to 0.303034
Heightened Def Con from 0.304882 to 0.304882
Heightened Def Con from 0.305036 to 0.305036
Heightened Def Con from 0.307038 to 0.307038
Heightened Def Con from 0.308972 to 0.308972
Heightened Def Con from 0.31097 to 0.31097
Heightened Def Con from 0.312968 to 0.312968
Heightened Def Con from 0.313045 to 0.313045
Heightened Def Con from 0.315048 to 0.315048
Heightened Def Con from 0.324846 to 0.324846
Heightened Def Con from 0.333073 to 0.333073
Heightened Def Con from 0.335076 to 0.335076
Heightened Def Con from 0.337079 to 0.337079
Heightened Def Con from 0.33893 to 0.33893
Heightened Def Con from 0.342924 to 0.342924
Heightened Def Con from 0.343089 to 0.343089
Heightened Def Con from 0.344891 to 0.344891
Heightened Def Con from 0.346917 to 0.346917
Heightened Def Con from 0.347097 to 0.347097
Heightened Def Con from 0.348913 to 0.348913
Heightened Def Con from 0.350909 to 0.350909
Heightened Def Con from 0.351104 to 0.351104
Heightened Def Con from 0.352876 to 0.352876
Heightened Def Con from 0.356898 to 0.356898
Heightened Def Con from 0.359119 to 0.359119
Heightened Def Con from 0.361123 to 0.361123
Heightened Def Con from 0.363127 to 0.363127
Heightened Def Con from 0.365132 to 0.365132
Heightened Def Con from 0.367136 to 0.367136
Heightened Def Con from 0.370686 to 0.370686
Heightened Def Con from 0.371144 to 0.371144
Heightened Def Con from 0.381167 to 0.381167
Heightened Def Con from 0.390797 to 0.390797
Heightened Def Con from 0.393195 to 0.393195
Heightened Def Con from 0.397166 to 0.397166
Heightened Def Con from 0.410675 to 0.410675
Heightened Def Con from 0.411242 to 0.411242
Heightened Def Con from 0.41474 to 0.41474
Heightened Def Con from 0.418751 to 0.418751
Heightened Def Con from 0.420727 to 0.420727
Heightened Def Con from 0.430717 to 0.430717
Heightened Def Con from 0.440652 to 0.440652
Heightened Def Con from 0.440688 to 0.440688
Heightened Def Con from 0.4686 to 0.4686
Heightened Def Con from 0.499505 to 0.499505
Heightened Def Con from 0.505524 to 0.505524
Heightened Def Con from 0.508442 to 0.508442
Heightened Def Con from 0.518449 to 0.518449
Heightened Def Con from 0.519568 to 0.519568
Heightened Def Con from 0.52358 to 0.52358
Heightened Def Con from 0.525539 to 0.525539
Heightened Def Con from 0.525586 to 0.525586
Heightened Def Con from 0.529599 to 0.529599
Heightened Def Con from 0.551666 to 0.551666
Heightened Def Con from 0.555678 to 0.555678
Heightened Def Con from 0.557643 to 0.557643
Heightened Def Con from 0.577741 to 0.577741
Heightened Def Con from 0.583758 to 0.583758
Heightened Def Con from 0.601805 to 0.601805
Heightened Def Con from 0.619848 to 0.619848
Heightened Def Con from 0.622159 to 0.622159
Heightened Def Con from 0.625862 to 0.625862
Heightened Def Con from 0.640121 to 0.640121
Heightened Def Con from 0.644113 to 0.644113
Heightened Def Con from 0.666074 to 0.666074
Heightened Def Con from 0.672065 to 0.672065
Heightened Def Con from 0.679959 to 0.679959
Heightened Def Con from 0.683647 to 0.683647
Heightened Def Con from 0.687969 to 0.687969
Heightened Def Con from 0.699531 to 0.699531
Heightened Def Con from 0.704027 to 0.704027
Heightened Def Con from 0.705966 to 0.705966
Heightened Def Con from 0.707989 to 0.707989
Heightened Def Con from 0.708024 to 0.708024
Heightened Def Con from 0.726001 to 0.726001
Heightened Def Con from 0.728011 to 0.728011
Heightened Def Con from 0.768 to 0.768
Heightened Def Con from 0.768 to 0.768
Heightened Def Con from 0.791989 to 0.791989
Heightened Def Con from 0.793988 to 0.793988
Heightened Def Con from 0.795986 to 0.795986
Heightened Def Con from 0.805976 to 0.805976
Heightened Def Con from 0.821956 to 0.821956
Heightened Def Con from 0.826062 to 0.826062
Heightened Def Con from 0.829945 to 0.829945
Heightened Def Con from 0.905785 to 0.905785
Heightened Def Con from 0.908234 to 0.908234
Heightened Def Con from 0.918175 to 0.918175
Heightened Def Con from 0.935703 to 0.935703
Heightened Def Con from 0.947668 to 0.947668
Heightened Def Con from 0.95365 to 0.95365
Heightened Def Con from 0.957464 to 0.957464
Heightened Def Con from 0.957638 to 0.957638
Heightened Def Con from 0.959623 to 0.959623
Heightened Def Con from 0.965614 to 0.965614
Heightened Def Con from 0.969601 to 0.969601
Heightened Def Con from 0.981456 to 0.981456
Heightened Def Con from 0.985552 to 0.985552
Heightened Def Con from 0.994478 to 0.994478
Heightened Def Con from 0.997514 to 0.997514
Heightened Def Con from 0.999508 to 0.999508
Total elapsed time: 10.815 seconds.

